/*--------------------------------*- C++ -*----------------------------------*\
| =========                 |
| \\      /  F ield         | OpenFOAM: The Open Source CFD Toolbox
|  \\    /   O peration     | Website:  https://openfoam.org
|   \\  /    A nd           |
|    \\/     M anipulation  |
\*---------------------------------------------------------------------------*/

FoamFile
{
    format      ascii;
    class       volScalarField;
    location    "0";
    object      nut.air;
}

dimensions      [0 2 -1 0 0 0 0];

internalField   uniform 0;

boundaryField
{
    inlet
    {
        type            zeroGradient;
    }

    outlet
    {
        type            zeroGradient;
    }

    upperWall
    {
        type            nutUSpaldingWallFunction;
        value           uniform 0;
    }

    lowerWall
    {
        type            nutUSpaldingWallFunction;
        value           uniform 0;
    }

    frontAndBack
    {
      type          nutUSpaldingWallFunction;
      value         uniform 0;
    }
}
